Version 4
SHEET 1 1068 680
WIRE 688 -160 496 -160
WIRE 688 -112 688 -160
WIRE 496 -96 496 -160
WIRE 496 48 496 -16
WIRE 688 48 688 -32
WIRE 688 48 496 48
WIRE 256 80 -64 80
WIRE 160 176 128 176
WIRE 256 176 256 80
WIRE 256 176 224 176
WIRE 288 176 256 176
WIRE 400 176 352 176
WIRE -64 192 -64 80
WIRE 128 240 128 176
WIRE 128 240 64 240
WIRE 400 240 400 176
WIRE 432 240 400 240
WIRE 544 240 432 240
WIRE 896 240 800 240
WIRE 992 240 896 240
WIRE 128 288 128 240
WIRE 160 288 128 288
WIRE 256 288 224 288
WIRE 288 288 256 288
WIRE 400 288 400 240
WIRE 400 288 352 288
WIRE 896 304 896 240
WIRE 432 352 432 240
WIRE 432 352 384 352
WIRE 480 352 432 352
WIRE -64 368 -64 272
WIRE 256 368 256 288
WIRE 256 368 -64 368
WIRE 432 416 384 416
WIRE 480 416 432 416
WIRE 672 432 672 336
WIRE 896 432 896 384
WIRE 896 432 672 432
WIRE 64 512 64 240
WIRE 432 512 432 416
WIRE 432 512 64 512
WIRE 896 512 896 432
WIRE 896 512 432 512
WIRE 896 576 896 512
FLAG 992 240 DC
IOPIN 992 240 Out
FLAG 896 576 0
SYMBOL voltage -64 176 R0
SYMATTR InstName V1
SYMATTR Value SINE(0 12 22)
SYMATTR Value2 AC 12
SYMBOL diode 288 304 R270
WINDOW 0 32 32 VTop 2
WINDOW 3 0 32 VBottom 2
SYMATTR InstName D4
SYMATTR Value 1N4001
SYMBOL Bordodynov's\ lib/ZZZ/VolReg/7805 672 240 R0
SYMATTR InstName U1
SYMBOL res 880 288 R0
SYMATTR InstName R1
SYMATTR Value 130
SYMBOL diode 160 304 R270
WINDOW 0 32 32 VTop 2
WINDOW 3 0 32 VBottom 2
SYMATTR InstName D1
SYMATTR Value 1N4001
SYMBOL diode 288 192 R270
WINDOW 0 32 32 VTop 2
WINDOW 3 0 32 VBottom 2
SYMATTR InstName D2
SYMATTR Value 1N4001
SYMBOL diode 160 192 R270
WINDOW 0 32 32 VTop 2
WINDOW 3 0 32 VBottom 2
SYMATTR InstName D3
SYMATTR Value 1N4001
SYMBOL voltage 496 -112 R0
SYMATTR InstName V2
SYMATTR Value SINE(0 12 80)
SYMATTR Value2 AC 12
SYMBOL res 672 -128 R0
SYMATTR InstName R2
SYMATTR Value 130
SYMBOL cap 464 352 R0
SYMATTR InstName C2
SYMATTR Value 100”
SYMBOL cap 368 352 R0
SYMATTR InstName C1
SYMATTR Value 100”
TEXT 16 16 Left 2 !.tran 0.1u 500ms
